data_image0
_chemical_formula_structural       Zr2TaTi3V110Cr3W5
_chemical_formula_sum              "Zr2 Ta1 Ti3 V110 Cr3 W5"
_cell_length_a       13.033682326955802
_cell_length_b       13.033682326955802
_cell_length_c       13.033682326955802
_cell_angle_alpha    109.47122063449069
_cell_angle_beta     109.47122063449069
_cell_angle_gamma    109.47122063449069

_space_group_name_H-M_alt    "P 1"
_space_group_IT_number       1

loop_
  _space_group_symop_operation_xyz
  'x, y, z'

loop_
  _atom_site_type_symbol
  _atom_site_label
  _atom_site_symmetry_multiplicity
  _atom_site_fract_x
  _atom_site_fract_y
  _atom_site_fract_z
  _atom_site_occupancy
  Zr  Zr1       1.0  0.7986410023456413  0.9982303977842644  0.8002772532454281  1.0000
  Zr  Zr2       1.0  0.8021067588501856  0.8026634277844904  0.4033323004746177  1.0000
  Ta  Ta1       1.0  0.0006224017074025808  0.8000125591834016  0.9992647688302024  1.0000
  Ti  Ti1       1.0  0.6029584162762  0.20327830831370866  0.0037167774209903833  1.0000
  Ti  Ti2       1.0  0.000519033603463997  0.4023706329619702  0.6037433348167739  1.0000
  Ti  Ti3       1.0  0.0015754050845057193  0.7977563675197493  0.40195319219153086  1.0000
  V   V1        1.0  0.5978175190917168  0.9969006860575721  0.0003673259999255141  1.0000
  V   V2        1.0  0.8009653230336172  0.19897533018350896  0.9994306794987294  1.0000
  V   V3        1.0  0.7985112232919107  0.9996593865232091  0.1999935027709486  1.0000
  V   V4        1.0  0.39853034097115253  0.0011579946642034887  0.9992604603702763  1.0000
  V   V5        1.0  0.7962303359050585  0.3983406613637156  0.9962689156552313  1.0000
  V   V6        1.0  0.5992814107080774  0.9989725722161306  0.1987851767038299  1.0000
  V   V7        1.0  0.802019593026694  0.2018342574003582  0.20230929396471867  1.0000
  V   V8        1.0  0.8003222724163587  0.0015220102497806873  0.40196290945382385  1.0000
  V   V9        1.0  0.19951796691317958  0.9996708391931528  0.9984492400001589  1.0000
  V   V10       1.0  0.4017627542739288  0.2041637013746257  0.0032189886426758872  1.0000
  V   V11       1.0  0.6028926737691565  0.3997209652245756  0.0013331596659021858  1.0000
  V   V12       1.0  0.8014592775402702  0.6015681200927178  0.9982531042288947  1.0000
  V   V13       1.0  0.40097859459271806  0.9999993704854213  0.20082090744977224  1.0000
  V   V14       1.0  0.6023007381200216  0.2018951688162596  0.2018719073897565  1.0000
  V   V15       1.0  0.8019429093956887  0.4008651922503077  0.20058491572807613  1.0000
  V   V16       1.0  0.5963012534889917  0.998507571365583  0.39607801949684457  1.0000
  V   V17       1.0  0.8001825355085068  0.1999531374422659  0.3994192991279477  1.0000
  V   V18       1.0  0.79831361927631  0.9988315687643209  0.6004332550288453  1.0000
  V   V19       1.0  0.0008611527973378351  0.0014829351418042837  0.9994398874078656  1.0000
  V   V20       1.0  0.2035690814760497  0.1996861323001279  0.0018802151197029001  1.0000
  V   V21       1.0  0.40356893848318043  0.40209908245955067  0.0023986122629438  1.0000
  V   V22       1.0  0.5998781364830964  0.6005248086771589  0.9996487575183755  1.0000
  V   V23       1.0  0.19776615975853934  0.9984280632722563  0.19904641662094208  1.0000
  V   V24       1.0  0.5997102344216295  0.3971502528846184  0.19957347362704184  1.0000
  V   V25       1.0  0.7994622736640736  0.5995220132340746  0.200057610290232  1.0000
  V   V26       1.0  0.4020879460976391  0.0025513427089075853  0.4004833932640212  1.0000
  V   V27       1.0  0.6002486827637048  0.20171401329905353  0.4020496590460879  1.0000
  V   V28       1.0  0.7982840056944276  0.39964081143578517  0.4006715630726436  1.0000
  V   V29       1.0  0.6021453542700457  0.001615963444695239  0.6039042218751034  1.0000
  V   V30       1.0  0.8024148221671698  0.2029241804086714  0.6010036596845131  1.0000
  V   V31       1.0  0.9999059090835765  0.19932947124724448  0.0003817014505950942  1.0000
  V   V32       1.0  0.40137500688456573  0.6003023440932223  0.9995585964180336  1.0000
  V   V33       1.0  0.6006099899737917  0.8000497471989316  0.0007275301027034066  1.0000
  V   V34       1.0  0.00021557970963146755  0.9996879437896209  0.19941881437570008  1.0000
  V   V35       1.0  0.19958273520394548  0.19815291442848137  0.2017498670908303  1.0000
  V   V36       1.0  0.39912388955775957  0.39881761235869484  0.1979751246211432  1.0000
  V   V37       1.0  0.5989403068707915  0.6004366489413564  0.1995901466591616  1.0000
  V   V38       1.0  0.7989726425157074  0.8021196181417158  0.2002454212549051  1.0000
  V   V39       1.0  0.2010038143179885  0.0011168794750319904  0.40044560273731383  1.0000
  V   V40       1.0  0.40276454688181024  0.20224068986200291  0.4017319694972422  1.0000
  V   V41       1.0  0.5961721737202788  0.39821726482906383  0.4000060116266841  1.0000
  V   V42       1.0  0.7998980168902198  0.5994758728466204  0.3964347744386644  1.0000
  V   V43       1.0  0.39775491057296364  0.9978564966308149  0.5976209217942751  1.0000
  V   V44       1.0  0.6028227262757012  0.2007612714037374  0.6000569331107279  1.0000
  V   V45       1.0  0.7996967935695474  0.39784322493933116  0.5999201729466713  1.0000
  V   V46       1.0  0.601215604415441  0.0016736142354725528  0.7996599493148571  1.0000
  V   V47       1.0  0.801062576550659  0.2017949771448373  0.8001092058719276  1.0000
  V   V48       1.0  0.003056346853039701  0.401846474594814  0.002084855792246316  1.0000
  V   V49       1.0  0.19961525916583966  0.5988113463807282  0.9994039128363474  1.0000
  V   V50       1.0  0.9986030571376068  0.2007744129407986  0.2019628652404505  1.0000
  V   V51       1.0  0.1987772659557873  0.3966319996805884  0.1982203015387611  1.0000
  V   V52       1.0  0.4006310374152785  0.6041580995619482  0.20074790743234402  1.0000
  V   V53       1.0  0.5982294614543032  0.7990371305128997  0.19975811981068992  1.0000
  V   V54       1.0  0.9964022761599287  1.7687608842146216e-05  0.39963025053709084  1.0000
  V   V55       1.0  0.1965753016285474  0.1974980441293836  0.3974723197458759  1.0000
  V   V56       1.0  0.3974297786378454  0.3977697074121678  0.3998722453010902  1.0000
  V   V57       1.0  0.5995062597587641  0.5975361249671746  0.4004468263622296  1.0000
  V   V58       1.0  0.19578946247914858  0.9984070256089477  0.5986977398111359  1.0000
  V   V59       1.0  0.401341834963686  0.2029000429440591  0.6015536010795975  1.0000
  V   V60       1.0  0.601025775048431  0.4010229427939204  0.5991922042632924  1.0000
  V   V61       1.0  0.7989367800619105  0.6003857325375954  0.5972598777135694  1.0000
  V   V62       1.0  0.5958787890635496  0.19644710477057795  0.7965322631293381  1.0000
  V   V63       1.0  0.7977037229833915  0.40025752890811933  0.7993378496185654  1.0000
  V   V64       1.0  9.99360423155418e-05  0.5992520669025754  0.9982094737538361  1.0000
  V   V65       1.0  0.20091353365383582  0.8029673888333996  0.0002765383206839531  1.0000
  V   V66       1.0  0.9993422824505841  0.39872650970440193  0.19946926033303888  1.0000
  V   V67       1.0  0.20000010250599323  0.6009974940645807  0.20023593799523473  1.0000
  V   V68       1.0  0.39921531571000146  0.8002016639112731  0.20090728868211796  1.0000
  V   V69       1.0  0.0006461325060260531  0.20229085327793492  0.3983056267372969  1.0000
  V   V70       1.0  0.1996574040857085  0.400718117551398  0.4013336179163128  1.0000
  V   V71       1.0  0.40056742988253047  0.6000701435159119  0.4014827263523864  1.0000
  V   V72       1.0  0.5997757073255775  0.8024913060826541  0.3988097878972538  1.0000
  V   V73       1.0  0.0018279399539975344  0.9997257246272998  0.6013807650642203  1.0000
  V   V74       1.0  0.199703123077763  0.19961887080418464  0.5992173561717362  1.0000
  V   V75       1.0  0.3978584825955225  0.3955771870636473  0.5981536483081685  1.0000
  V   V76       1.0  0.5994053566247053  0.6020794265093217  0.6011999942643564  1.0000
  V   V77       1.0  0.7974473005764845  0.7974867315879985  0.600237675589689  1.0000
  V   V78       1.0  0.20100943743144817  0.001842006742580512  0.8020016729086129  1.0000
  V   V79       1.0  0.4004981660401633  0.19997784813645228  0.8009447538086812  1.0000
  V   V80       1.0  0.6011581290633486  0.4024004682495733  0.8026253696090633  1.0000
  V   V81       1.0  0.8000257655413912  0.6006782801304087  0.8002907463040965  1.0000
  V   V82       1.0  0.9996342995007003  0.5999200886853673  0.20007601274887937  1.0000
  V   V83       1.0  0.19929856618949093  0.7986318031182782  0.19865425075880203  1.0000
  V   V84       1.0  0.9993056429265926  0.3995774257411411  0.39964458015866555  1.0000
  V   V85       1.0  0.2019384985692237  0.5999099176134816  0.398483684866408  1.0000
  V   V86       1.0  0.3976827854518062  0.7998078616243569  0.39906993646132927  1.0000
  V   V87       1.0  0.9987433451820065  0.19874899176214125  0.5961255607095868  1.0000
  V   V88       1.0  0.20305206051125288  0.4003169147091449  0.60333816137314  1.0000
  V   V89       1.0  0.6020298994679274  0.7993880448356496  0.5974923780555331  1.0000
  V   V90       1.0  0.2000413826702052  0.20064495317825634  0.8003452718820764  1.0000
  V   V91       1.0  0.4007109890430289  0.4004619283600894  0.7999840838443384  1.0000
  V   V92       1.0  0.8010318810281427  0.8005950388056098  0.7987698183654103  1.0000
  V   V93       1.0  0.00426973002195096  0.8018950541481092  0.20324349673434353  1.0000
  V   V94       1.0  0.9998114567746478  0.600350521745148  0.3999252331633571  1.0000
  V   V95       1.0  0.198437270063169  0.7986454099839491  0.3964013065201139  1.0000
  V   V96       1.0  0.19878672081551627  0.6019584011304564  0.5999245194511753  1.0000
  V   V97       1.0  0.4003525162860431  0.8000602261045515  0.5998987172664823  1.0000
  V   V98       1.0  0.9998281881744577  0.20081232087045692  0.8003791824046292  1.0000
  V   V99       1.0  0.1998676072025246  0.4003467970893347  0.8009603045130236  1.0000
  V   V100      1.0  0.4021147214027756  0.6013900074562961  0.7989915020868187  1.0000
  V   V101      1.0  0.6984254492300728  0.8996423921814314  0.8980849989505247  1.0000
  V   V102      1.0  0.99901356560062  0.6002470534126065  0.6003152877985645  1.0000
  V   V103      1.0  0.19895519513320262  0.7989289182415218  0.5996695111052693  1.0000
  V   V104      1.0  0.0009852209218289137  0.39854386864949837  0.8004704096623981  1.0000
  V   V105      1.0  0.20176465863836854  0.6029733047633551  0.8039221799106996  1.0000
  V   V106      1.0  0.40082299419795125  0.8028566579900308  0.7995906093472561  1.0000
  V   V107      1.0  0.999619667919782  0.8007598697514869  0.5967172964988506  1.0000
  V   V108      1.0  0.001503803403056703  0.6014012890141901  0.7999357225561492  1.0000
  V   V109      1.0  0.20063472392624737  0.8007629230380874  0.799061675374938  1.0000
  V   V110      1.0  0.0012811746712926657  0.7990871935952503  0.801186207298075  1.0000
  Cr  Cr1       1.0  0.3996092448942647  0.1987346633276345  0.20118903395364993  1.0000
  Cr  Cr2       1.0  0.39788470326724845  0.7978672819958434  0.9974314599224461  1.0000
  Cr  Cr3       1.0  0.4022246556040884  0.002173725322277675  0.8002889716682828  1.0000
  W   W1        1.0  0.7987132576924952  0.7987703058063979  0.9989076137621113  1.0000
  W   W2        1.0  0.1969630618510558  0.4003522736241273  0.0007923138510090081  1.0000
  W   W3        1.0  0.39731785453179863  0.5956527266041276  0.598948891913471  1.0000
  W   W4        1.0  0.0002963174718367841  0.0002756608798287413  0.7998203988829891  1.0000
  W   W5        1.0  0.597677741181554  0.6000618944868175  0.7976546673573163  1.0000
