data_image0
_chemical_formula_structural       V6CrV5CrV17CrV9Ti2V16TiV4
_chemical_formula_sum              "V57 Cr3 Ti3"
_cell_length_a       10.392304845413264
_cell_length_b       10.392304845413264
_cell_length_c       10.392304845413264
_cell_angle_alpha    109.47122063449069
_cell_angle_beta     109.47122063449069
_cell_angle_gamma    109.47122063449069

_space_group_name_H-M_alt    "P 1"
_space_group_IT_number       1

loop_
  _space_group_symop_operation_xyz
  'x, y, z'

loop_
  _atom_site_type_symbol
  _atom_site_label
  _atom_site_symmetry_multiplicity
  _atom_site_fract_x
  _atom_site_fract_y
  _atom_site_fract_z
  _atom_site_occupancy
  V   V1        1.0  0.7495182907423407  0.9998030208580567  0.9970121170130289  1.0000
  V   V2        1.0  0.497823850666223  0.9969204189450461  0.9984885803568055  1.0000
  V   V3        1.0  0.7496187539473695  0.24919168668892722  0.998802168437576  1.0000
  V   V4        1.0  0.7498124911366602  0.0019805439996620025  0.25167581900653124  1.0000
  V   V5        1.0  0.2521788626384347  0.0010658033206379924  0.0006301707347183827  1.0000
  V   V6        1.0  0.4992349401293005  0.2538058626970812  0.9986196888622092  1.0000
  Cr  Cr1       1.0  0.49735258710530844  0.9962820288834827  0.2508939620309518  1.0000
  V   V7        1.0  0.7490902994735535  0.24958000038288103  0.24948771952462634  1.0000
  V   V8        1.0  0.753379524250308  0.0016055939916361042  0.5006350121597329  1.0000
  V   V9        1.0  0.0008157637061946647  0.0021453855534268778  0.9996351482304684  1.0000
  V   V10       1.0  0.2505383590236462  0.24800125916842589  0.9991224234778341  1.0000
  V   V11       1.0  0.4970463156252001  0.5005616707428409  0.9994354943410229  1.0000
  Cr  Cr2       1.0  0.7499797553124126  0.7483334581397563  0.9976289182927168  1.0000
  V   V12       1.0  0.24830269905273727  0.9968992698778856  0.24575671318840026  1.0000
  V   V13       1.0  0.4967504324671089  0.24663600980592607  0.24956379886619073  1.0000
  V   V14       1.0  0.7512371835902917  0.4968288810590211  0.2508311638316757  1.0000
  V   V15       1.0  0.5023100918216921  0.00024598018297727897  0.4982826355627564  1.0000
  V   V16       1.0  0.7470982990252862  0.2492798472857191  0.5004630563704998  1.0000
  V   V17       1.0  0.7506885857415729  0.9964811056541827  0.7508230568428778  1.0000
  V   V18       1.0  0.001869543720045256  0.24743053959099076  0.0013099588791819123  1.0000
  V   V19       1.0  0.2539162503329412  0.499340296121871  0.0023152135905271836  1.0000
  V   V20       1.0  0.5004558029141043  0.7479436922968153  0.003146972272076905  1.0000
  V   V21       1.0  0.996900507435742  0.9982624447104023  0.25000634189796667  1.0000
  V   V22       1.0  0.24987372347671  0.24940093381998088  0.2501583094763725  1.0000
  V   V23       1.0  0.49878299930034997  0.4987308988922071  0.2497353954493139  1.0000
  V   V24       1.0  0.7503307287041238  0.751023634741924  0.2515658657758467  1.0000
  V   V25       1.0  0.24828510328511624  0.9995595717754568  0.5000868372196262  1.0000
  V   V26       1.0  0.4989153688322748  0.24741911610591277  0.4983262869391384  1.0000
  V   V27       1.0  0.7494975809120545  0.49942092243181363  0.4973637857149319  1.0000
  V   V28       1.0  0.4997823885637499  0.9997373339290772  0.7491724897136891  1.0000
  Cr  Cr3       1.0  0.7503709469563984  0.2527021559732375  0.7499727333142131  1.0000
  V   V29       1.0  7.995223919691577e-05  0.49638764834137794  0.9975919213299888  1.0000
  V   V30       1.0  0.2452856553419617  0.7503848580311105  0.9995022636990927  1.0000
  V   V31       1.0  0.9963211651221826  0.24689613971088714  0.24484245577162717  1.0000
  V   V32       1.0  0.2501083272230934  0.4995829777370973  0.2513048121906519  1.0000
  V   V33       1.0  0.497536547251364  0.7484361923531924  0.24802364610711397  1.0000
  V   V34       1.0  0.0047245877440422746  0.002327540606973007  0.5017905121157638  1.0000
  V   V35       1.0  0.24952636871649486  0.2501564899514035  0.5003446433440346  1.0000
  V   V36       1.0  0.4986949387356668  0.4991612700705189  0.5029648267619773  1.0000
  V   V37       1.0  0.7489830297124644  0.748657726508644  0.5007861858972988  1.0000
  Ti  Ti1       1.0  0.25435605891326285  0.9990251876213325  0.7506901376726379  1.0000
  Ti  Ti2       1.0  0.4984239335331956  0.24902560730538306  0.7496922497982516  1.0000
  V   V38       1.0  0.753991696491233  0.5026542773957995  0.74916700318513  1.0000
  V   V39       1.0  0.0006190965116050032  0.7484706698469232  0.0019382807925622338  1.0000
  V   V40       1.0  0.9987654130903  0.5012730165406285  0.24826085891309863  1.0000
  V   V41       1.0  0.250444440066183  0.752950473604917  0.2512969940155594  1.0000
  V   V42       1.0  0.001302177651881416  0.252119001085615  0.5045011352961392  1.0000
  V   V43       1.0  0.24923800905770382  0.4983451481873993  0.49953105460589964  1.0000
  V   V44       1.0  0.5020545325267003  0.752305339299476  0.503775773669593  1.0000
  V   V45       1.0  0.9951984449926927  0.9955774392264237  0.748747279186509  1.0000
  V   V46       1.0  0.2511652507023673  0.2513318800108001  0.7480574123044447  1.0000
  V   V47       1.0  0.5010347402056388  0.5020442977871404  0.749440317022558  1.0000
  V   V48       1.0  0.7516651042998819  0.7544512462965406  0.7545809964090179  1.0000
  V   V49       1.0  0.7513971978564913  0.5025810699752796  0.0035527144238911936  1.0000
  V   V50       1.0  0.0007423500451366749  0.5003294504685819  0.5001170548471121  1.0000
  V   V51       1.0  0.24974347014200937  0.749685626916021  0.5002643117792487  1.0000
  V   V52       1.0  2.0995068507723147e-05  0.2501972059089723  0.7492339533616832  1.0000
  V   V53       1.0  0.2516656097337068  0.5007535342891716  0.7493989692110544  1.0000
  Ti  Ti3       1.0  0.4995256894648657  0.7493775803336569  0.7503299720710122  1.0000
  V   V54       1.0  0.0001349029211813087  0.749352502858899  0.5008039176353353  1.0000
  V   V55       1.0  0.9966274292894767  0.49636292492333123  0.7508729680318587  1.0000
  V   V56       1.0  0.24827633048571007  0.7471191725753036  0.7502924185128814  1.0000
  V   V57       1.0  0.003266981961405069  0.7528608185906848  0.7503259431121907  1.0000
